
This summary file was generated by HydroDyn  on 19-Nov-2025 at 10:35:57.




Strip-Theory Volume Calculations(m^3)
-------------------------------------
  Structure Volume     :    1.59245E+04
  Submerged Volume     :    1.42280E+04
  Marine Growth Volume :    0.00000E+00
  Ballasted Volume     :    0.00000E+00
              NOTE: Structure, Submerged and Marine Growth volumes are based on members not modelled with WAMIT
                      Ballasted volume is computed from all members which are marked as filled in the HydroDyn input file, regardless of PropPot flag



Total Buoyancy loads summed about ( 0.0, 0.0, 0.0 )
---------------------------------------------------
                                BuoyFxi               BuoyFyi               BuoyFzi               BuoyMxi               BuoyMyi               BuoyMzi 
                                  (N)                   (N)                   (N)                  (N-m)                 (N-m)                 (N-m)  
 External:                 -8.993084E+00         -7.566996E-02          1.430663E+08         -2.719607E+01          2.639237E+02          1.734723E-10
 Internal:                  0.000000E+00          0.000000E+00          0.000000E+00          0.000000E+00          0.000000E+00          0.000000E+00
 Total   :                 -8.993084E+00         -7.566996E-02          1.430663E+08         -2.719607E+01          2.639237E+02          1.734723E-10
              NOTE: External buoyancy is based on members not modelled with WAMIT
                      Internal buoyancy is computed from all members which are marked as filled in the HydroDyn input file, regardless of PropPot flag
                    Total buoyancy does not include WAMIT-modelled buoyancy contribution



Weight loads about ( 0.0, 0.0, 0.0 )
------------------------------------
                                 MGFxi                 MGFyi                 MGFzi                 MGMxi                 MGMyi                 MGMzi  
                                  (N)                   (N)                   (N)                  (N-m)                 (N-m)                 (N-m)  
 Marine Growth:             0.000000E+00          0.000000E+00          0.000000E+00          0.000000E+00          0.000000E+00          0.000000E+00



Nodes (first [  20 ] are joints, remainder are internal nodes)


   i      MbrIndx      Nxi         Nyi         Nzi        Shape          R          SA          SB          t          tMG        MGDens     PropPot    FilledFlag  FilledMass      Cd          CdA         CdB         Ca          CaA         CaB         Cp          Cb         AxCd        AxCa        AxCp        JAxCd       JAxCa       JAxCp     JAxFDMod   JAxVnCOff   JAxFDLoFSc
  (-)       (-)         (m)         (m)         (m)         (-)         (m)         (m)         (m)        (m)         (m)       (kg/m^3)       (-)         (-)        (kg)         (-)         (-)         (-)         (-)         (-)         (-)        (-)         (-)          (-)         (-)         (-)         (-)         (-)         (-)         (-)         (-)         (-)   
     1       -          0.0000      0.0000    -36.0000       -           -           -           -           -       0.000E+00   0.000E+00       -           -           -           -           -           -           -           -           -           -           -           -           -           -       6.000E-01   6.000E-01   1.000E+00          0   0.000E+00   1.000E+00
     2       -          0.0000      0.0000     15.0000       -           -           -           -           -       0.000E+00   0.000E+00       -           -           -           -           -           -           -           -           -           -           -           -           -           -       6.000E-01   6.000E-01   1.000E+00          0   0.000E+00   1.000E+00
     3       -          2.8200      4.8844    -32.5000       -           -           -           -           -       0.000E+00   0.000E+00       -           -           -           -           -           -           -           -           -           -           -           -           -           -       6.000E-01   6.000E-01   1.000E+00          0   0.000E+00   1.000E+00
     4       -         30.1500     52.2213    -32.5000       -           -           -           -           -       0.000E+00   0.000E+00       -           -           -           -           -           -           -           -           -           -           -           -           -           -       6.000E-01   6.000E-01   1.000E+00          0   0.000E+00   1.000E+00
     5       -         -5.6400      0.0000    -32.5000       -           -           -           -           -       0.000E+00   0.000E+00       -           -           -           -           -           -           -           -           -           -           -           -           -           -       6.000E-01   6.000E-01   1.000E+00          0   0.000E+00   1.000E+00
     6       -        -60.3000      0.0000    -32.5000       -           -           -           -           -       0.000E+00   0.000E+00       -           -           -           -           -           -           -           -           -           -           -           -           -           -       6.000E-01   6.000E-01   1.000E+00          0   0.000E+00   1.000E+00
     7       -          2.8200     -4.8844    -32.5000       -           -           -           -           -       0.000E+00   0.000E+00       -           -           -           -           -           -           -           -           -           -           -           -           -           -       6.000E-01   6.000E-01   1.000E+00          0   0.000E+00   1.000E+00
     8       -         30.1500    -52.2213    -32.5000       -           -           -           -           -       0.000E+00   0.000E+00       -           -           -           -           -           -           -           -           -           -           -           -           -           -       6.000E-01   6.000E-01   1.000E+00          0   0.000E+00   1.000E+00
     9       -         20.0000     34.6410    -29.0000       -           -           -           -           -       0.000E+00   0.000E+00       -           -           -           -           -           -           -           -           -           -           -           -           -           -       6.000E-01   6.000E-01   1.000E+00          0   0.000E+00   1.000E+00
    10       -          3.0000      5.1962    -12.0000       -           -           -           -           -       0.000E+00   0.000E+00       -           -           -           -           -           -           -           -           -           -           -           -           -           -       6.000E-01   6.000E-01   1.000E+00          0   0.000E+00   1.000E+00
    11       -        -40.0000      0.0000    -29.0000       -           -           -           -           -       0.000E+00   0.000E+00       -           -           -           -           -           -           -           -           -           -           -           -           -           -       6.000E-01   6.000E-01   1.000E+00          0   0.000E+00   1.000E+00
    12       -         -6.0000      0.0000    -12.0000       -           -           -           -           -       0.000E+00   0.000E+00       -           -           -           -           -           -           -           -           -           -           -           -           -           -       6.000E-01   6.000E-01   1.000E+00          0   0.000E+00   1.000E+00
    13       -         20.0000    -34.6410    -29.0000       -           -           -           -           -       0.000E+00   0.000E+00       -           -           -           -           -           -           -           -           -           -           -           -           -           -       6.000E-01   6.000E-01   1.000E+00          0   0.000E+00   1.000E+00
    14       -          3.0000     -5.1962    -12.0000       -           -           -           -           -       0.000E+00   0.000E+00       -           -           -           -           -           -           -           -           -           -           -           -           -           -       6.000E-01   6.000E-01   1.000E+00          0   0.000E+00   1.000E+00
    15       -         31.7500     54.9926    -36.0000       -           -           -           -           -       0.000E+00   0.000E+00       -           -           -           -           -           -           -           -           -           -           -           -           -           -       6.000E-01   6.000E-01   1.000E+00          0   0.000E+00   1.000E+00
    16       -         31.7500     54.9926    -20.0000       -           -           -           -           -       0.000E+00   0.000E+00       -           -           -           -           -           -           -           -           -           -           -           -           -           -       6.000E-01   6.000E-01   1.000E+00          0   0.000E+00   1.000E+00
    17       -        -63.5000      0.0000    -36.0000       -           -           -           -           -       0.000E+00   0.000E+00       -           -           -           -           -           -           -           -           -           -           -           -           -           -       6.000E-01   6.000E-01   1.000E+00          0   0.000E+00   1.000E+00
    18       -        -63.5000      0.0000    -20.0000       -           -           -           -           -       0.000E+00   0.000E+00       -           -           -           -           -           -           -           -           -           -           -           -           -           -       6.000E-01   6.000E-01   1.000E+00          0   0.000E+00   1.000E+00
    19       -         31.7500    -54.9926    -36.0000       -           -           -           -           -       0.000E+00   0.000E+00       -           -           -           -           -           -           -           -           -           -           -           -           -           -       6.000E-01   6.000E-01   1.000E+00          0   0.000E+00   1.000E+00
    20       -         31.7500    -54.9926    -20.0000       -           -           -           -           -       0.000E+00   0.000E+00       -           -           -           -           -           -           -           -           -           -           -           -           -           -       6.000E-01   6.000E-01   1.000E+00          0   0.000E+00   1.000E+00
    21           1      0.0000      0.0000    -34.0385      C        6.000E+00      -           -        5.000E-02   0.000E+00   0.000E+00           F           F   0.000E+00   8.000E-01      -           -        1.000E+00      -           -        1.000E+00   1.000E+00   6.000E-01   1.000E+00   1.000E+00         -           -           -           -           -           -  
    22           1      0.0000      0.0000    -32.0769      C        6.000E+00      -           -        5.000E-02   0.000E+00   0.000E+00           F           F   0.000E+00   8.000E-01      -           -        1.000E+00      -           -        1.000E+00   1.000E+00   6.000E-01   1.000E+00   1.000E+00         -           -           -           -           -           -  
    23           1      0.0000      0.0000    -30.1154      C        6.000E+00      -           -        5.000E-02   0.000E+00   0.000E+00           F           F   0.000E+00   8.000E-01      -           -        1.000E+00      -           -        1.000E+00   1.000E+00   6.000E-01   1.000E+00   1.000E+00         -           -           -           -           -           -  
    24           1      0.0000      0.0000    -28.1538      C        6.000E+00      -           -        5.000E-02   0.000E+00   0.000E+00           F           F   0.000E+00   8.000E-01      -           -        1.000E+00      -           -        1.000E+00   1.000E+00   6.000E-01   1.000E+00   1.000E+00         -           -           -           -           -           -  
    25           1      0.0000      0.0000    -26.1923      C        6.000E+00      -           -        5.000E-02   0.000E+00   0.000E+00           F           F   0.000E+00   8.000E-01      -           -        1.000E+00      -           -        1.000E+00   1.000E+00   6.000E-01   1.000E+00   1.000E+00         -           -           -           -           -           -  
    26           1      0.0000      0.0000    -24.2308      C        6.000E+00      -           -        5.000E-02   0.000E+00   0.000E+00           F           F   0.000E+00   8.000E-01      -           -        1.000E+00      -           -        1.000E+00   1.000E+00   6.000E-01   1.000E+00   1.000E+00         -           -           -           -           -           -  
    27           1      0.0000      0.0000    -22.2692      C        6.000E+00      -           -        5.000E-02   0.000E+00   0.000E+00           F           F   0.000E+00   8.000E-01      -           -        1.000E+00      -           -        1.000E+00   1.000E+00   6.000E-01   1.000E+00   1.000E+00         -           -           -           -           -           -  
    28           1      0.0000      0.0000    -20.3077      C        6.000E+00      -           -        5.000E-02   0.000E+00   0.000E+00           F           F   0.000E+00   8.000E-01      -           -        1.000E+00      -           -        1.000E+00   1.000E+00   6.000E-01   1.000E+00   1.000E+00         -           -           -           -           -           -  
    29           1      0.0000      0.0000    -18.3462      C        6.000E+00      -           -        5.000E-02   0.000E+00   0.000E+00           F           F   0.000E+00   8.000E-01      -           -        1.000E+00      -           -        1.000E+00   1.000E+00   6.000E-01   1.000E+00   1.000E+00         -           -           -           -           -           -  
    30           1      0.0000      0.0000    -16.3846      C        6.000E+00      -           -        5.000E-02   0.000E+00   0.000E+00           F           F   0.000E+00   8.000E-01      -           -        1.000E+00      -           -        1.000E+00   1.000E+00   6.000E-01   1.000E+00   1.000E+00         -           -           -           -           -           -  
    31           1      0.0000      0.0000    -14.4231      C        6.000E+00      -           -        5.000E-02   0.000E+00   0.000E+00           F           F   0.000E+00   8.000E-01      -           -        1.000E+00      -           -        1.000E+00   1.000E+00   6.000E-01   1.000E+00   1.000E+00         -           -           -           -           -           -  
    32           1      0.0000      0.0000    -12.4615      C        6.000E+00      -           -        5.000E-02   0.000E+00   0.000E+00           F           F   0.000E+00   8.000E-01      -           -        1.000E+00      -           -        1.000E+00   1.000E+00   6.000E-01   1.000E+00   1.000E+00         -           -           -           -           -           -  
    33           1      0.0000      0.0000    -10.5000      C        6.000E+00      -           -        5.000E-02   0.000E+00   0.000E+00           F           F   0.000E+00   8.000E-01      -           -        1.000E+00      -           -        1.000E+00   1.000E+00   6.000E-01   1.000E+00   1.000E+00         -           -           -           -           -           -  
    34           1      0.0000      0.0000     -8.5385      C        6.000E+00      -           -        5.000E-02   0.000E+00   0.000E+00           F           F   0.000E+00   8.000E-01      -           -        1.000E+00      -           -        1.000E+00   1.000E+00   6.000E-01   1.000E+00   1.000E+00         -           -           -           -           -           -  
    35           1      0.0000      0.0000     -6.5769      C        6.000E+00      -           -        5.000E-02   0.000E+00   0.000E+00           F           F   0.000E+00   8.000E-01      -           -        1.000E+00      -           -        1.000E+00   1.000E+00   6.000E-01   1.000E+00   1.000E+00         -           -           -           -           -           -  
    36           1      0.0000      0.0000     -4.6154      C        6.000E+00      -           -        5.000E-02   0.000E+00   0.000E+00           F           F   0.000E+00   8.000E-01      -           -        1.000E+00      -           -        1.000E+00   1.000E+00   6.000E-01   1.000E+00   1.000E+00         -           -           -           -           -           -  
    37           1      0.0000      0.0000     -2.6538      C        6.000E+00      -           -        5.000E-02   0.000E+00   0.000E+00           F           F   0.000E+00   8.000E-01      -           -        1.000E+00      -           -        1.000E+00   1.000E+00   6.000E-01   1.000E+00   1.000E+00         -           -           -           -           -           -  
    38           1      0.0000      0.0000     -0.6923      C        6.000E+00      -           -        5.000E-02   0.000E+00   0.000E+00           F           F   0.000E+00   8.000E-01      -           -        1.000E+00      -           -        1.000E+00   1.000E+00   6.000E-01   1.000E+00   1.000E+00         -           -           -           -           -           -  
    39           1      0.0000      0.0000      1.2692      C        6.000E+00      -           -        5.000E-02   0.000E+00   0.000E+00           F           F   0.000E+00   8.000E-01      -           -        1.000E+00      -           -        1.000E+00   1.000E+00   6.000E-01   1.000E+00   1.000E+00         -           -           -           -           -           -  
    40           1      0.0000      0.0000      3.2308      C        6.000E+00      -           -        5.000E-02   0.000E+00   0.000E+00           F           F   0.000E+00   8.000E-01      -           -        1.000E+00      -           -        1.000E+00   1.000E+00   6.000E-01   1.000E+00   1.000E+00         -           -           -           -           -           -  
    41           1      0.0000      0.0000      5.1923      C        6.000E+00      -           -        5.000E-02   0.000E+00   0.000E+00           F           F   0.000E+00   8.000E-01      -           -        1.000E+00      -           -        1.000E+00   1.000E+00   6.000E-01   1.000E+00   1.000E+00         -           -           -           -           -           -  
    42           1      0.0000      0.0000      7.1538      C        6.000E+00      -           -        5.000E-02   0.000E+00   0.000E+00           F           F   0.000E+00   8.000E-01      -           -        1.000E+00      -           -        1.000E+00   1.000E+00   6.000E-01   1.000E+00   1.000E+00         -           -           -           -           -           -  
    43           1      0.0000      0.0000      9.1154      C        6.000E+00      -           -        5.000E-02   0.000E+00   0.000E+00           F           F   0.000E+00   8.000E-01      -           -        1.000E+00      -           -        1.000E+00   1.000E+00   6.000E-01   1.000E+00   1.000E+00         -           -           -           -           -           -  
    44           1      0.0000      0.0000     11.0769      C        6.000E+00      -           -        5.000E-02   0.000E+00   0.000E+00           F           F   0.000E+00   8.000E-01      -           -        1.000E+00      -           -        1.000E+00   1.000E+00   6.000E-01   1.000E+00   1.000E+00         -           -           -           -           -           -  
    45           1      0.0000      0.0000     13.0385      C        6.000E+00      -           -        5.000E-02   0.000E+00   0.000E+00           F           F   0.000E+00   8.000E-01      -           -        1.000E+00      -           -        1.000E+00   1.000E+00   6.000E-01   1.000E+00   1.000E+00         -           -           -           -           -           -  
    46           2      3.7961      6.5750    -32.5000      C        3.500E+00      -           -        8.160E-02   0.000E+00   0.000E+00           F           F   0.000E+00   8.000E-01      -           -        1.000E+00      -           -        1.000E+00   1.000E+00   6.000E-01   1.000E+00   1.000E+00         -           -           -           -           -           -  
    47           2      4.7721      8.2656    -32.5000      C        3.500E+00      -           -        8.160E-02   0.000E+00   0.000E+00           F           F   0.000E+00   8.000E-01      -           -        1.000E+00      -           -        1.000E+00   1.000E+00   6.000E-01   1.000E+00   1.000E+00         -           -           -           -           -           -  
    48           2      5.7482      9.9562    -32.5000      C        3.500E+00      -           -        8.160E-02   0.000E+00   0.000E+00           F           F   0.000E+00   8.000E-01      -           -        1.000E+00      -           -        1.000E+00   1.000E+00   6.000E-01   1.000E+00   1.000E+00         -           -           -           -           -           -  
    49           2      6.7243     11.6468    -32.5000      C        3.500E+00      -           -        8.160E-02   0.000E+00   0.000E+00           F           F   0.000E+00   8.000E-01      -           -        1.000E+00      -           -        1.000E+00   1.000E+00   6.000E-01   1.000E+00   1.000E+00         -           -           -           -           -           -  
    50           2      7.7004     13.3374    -32.5000      C        3.500E+00      -           -        8.160E-02   0.000E+00   0.000E+00           F           F   0.000E+00   8.000E-01      -           -        1.000E+00      -           -        1.000E+00   1.000E+00   6.000E-01   1.000E+00   1.000E+00         -           -           -           -           -           -  
    51           2      8.6764     15.0280    -32.5000      C        3.500E+00      -           -        8.160E-02   0.000E+00   0.000E+00           F           F   0.000E+00   8.000E-01      -           -        1.000E+00      -           -        1.000E+00   1.000E+00   6.000E-01   1.000E+00   1.000E+00         -           -           -           -           -           -  
    52           2      9.6525     16.7186    -32.5000      C        3.500E+00      -           -        8.160E-02   0.000E+00   0.000E+00           F           F   0.000E+00   8.000E-01      -           -        1.000E+00      -           -        1.000E+00   1.000E+00   6.000E-01   1.000E+00   1.000E+00         -           -           -           -           -           -  
    53           2     10.6286     18.4092    -32.5000      C        3.500E+00      -           -        8.160E-02   0.000E+00   0.000E+00           F           F   0.000E+00   8.000E-01      -           -        1.000E+00      -           -        1.000E+00   1.000E+00   6.000E-01   1.000E+00   1.000E+00         -           -           -           -           -           -  
    54           2     11.6046     20.0998    -32.5000      C        3.500E+00      -           -        8.160E-02   0.000E+00   0.000E+00           F           F   0.000E+00   8.000E-01      -           -        1.000E+00      -           -        1.000E+00   1.000E+00   6.000E-01   1.000E+00   1.000E+00         -           -           -           -           -           -  
    55           2     12.5807     21.7904    -32.5000      C        3.500E+00      -           -        8.160E-02   0.000E+00   0.000E+00           F           F   0.000E+00   8.000E-01      -           -        1.000E+00      -           -        1.000E+00   1.000E+00   6.000E-01   1.000E+00   1.000E+00         -           -           -           -           -           -  
    56           2     13.5568     23.4810    -32.5000      C        3.500E+00      -           -        8.160E-02   0.000E+00   0.000E+00           F           F   0.000E+00   8.000E-01      -           -        1.000E+00      -           -        1.000E+00   1.000E+00   6.000E-01   1.000E+00   1.000E+00         -           -           -           -           -           -  
    57           2     14.5329     25.1716    -32.5000      C        3.500E+00      -           -        8.160E-02   0.000E+00   0.000E+00           F           F   0.000E+00   8.000E-01      -           -        1.000E+00      -           -        1.000E+00   1.000E+00   6.000E-01   1.000E+00   1.000E+00         -           -           -           -           -           -  
    58           2     15.5089     26.8623    -32.5000      C        3.500E+00      -           -        8.160E-02   0.000E+00   0.000E+00           F           F   0.000E+00   8.000E-01      -           -        1.000E+00      -           -        1.000E+00   1.000E+00   6.000E-01   1.000E+00   1.000E+00         -           -           -           -           -           -  
    59           2     16.4850     28.5529    -32.5000      C        3.500E+00      -           -        8.160E-02   0.000E+00   0.000E+00           F           F   0.000E+00   8.000E-01      -           -        1.000E+00      -           -        1.000E+00   1.000E+00   6.000E-01   1.000E+00   1.000E+00         -           -           -           -           -           -  
    60           2     17.4611     30.2435    -32.5000      C        3.500E+00      -           -        8.160E-02   0.000E+00   0.000E+00           F           F   0.000E+00   8.000E-01      -           -        1.000E+00      -           -        1.000E+00   1.000E+00   6.000E-01   1.000E+00   1.000E+00         -           -           -           -           -           -  
    61           2     18.4371     31.9341    -32.5000      C        3.500E+00      -           -        8.160E-02   0.000E+00   0.000E+00           F           F   0.000E+00   8.000E-01      -           -        1.000E+00      -           -        1.000E+00   1.000E+00   6.000E-01   1.000E+00   1.000E+00         -           -           -           -           -           -  
    62           2     19.4132     33.6247    -32.5000      C        3.500E+00      -           -        8.160E-02   0.000E+00   0.000E+00           F           F   0.000E+00   8.000E-01      -           -        1.000E+00      -           -        1.000E+00   1.000E+00   6.000E-01   1.000E+00   1.000E+00         -           -           -           -           -           -  
    63           2     20.3893     35.3153    -32.5000      C        3.500E+00      -           -        8.160E-02   0.000E+00   0.000E+00           F           F   0.000E+00   8.000E-01      -           -        1.000E+00      -           -        1.000E+00   1.000E+00   6.000E-01   1.000E+00   1.000E+00         -           -           -           -           -           -  
    64           2     21.3654     37.0059    -32.5000      C        3.500E+00      -           -        8.160E-02   0.000E+00   0.000E+00           F           F   0.000E+00   8.000E-01      -           -        1.000E+00      -           -        1.000E+00   1.000E+00   6.000E-01   1.000E+00   1.000E+00         -           -           -           -           -           -  
    65           2     22.3414     38.6965    -32.5000      C        3.500E+00      -           -        8.160E-02   0.000E+00   0.000E+00           F           F   0.000E+00   8.000E-01      -           -        1.000E+00      -           -        1.000E+00   1.000E+00   6.000E-01   1.000E+00   1.000E+00         -           -           -           -           -           -  
    66           2     23.3175     40.3871    -32.5000      C        3.500E+00      -           -        8.160E-02   0.000E+00   0.000E+00           F           F   0.000E+00   8.000E-01      -           -        1.000E+00      -           -        1.000E+00   1.000E+00   6.000E-01   1.000E+00   1.000E+00         -           -           -           -           -           -  
    67           2     24.2936     42.0777    -32.5000      C        3.500E+00      -           -        8.160E-02   0.000E+00   0.000E+00           F           F   0.000E+00   8.000E-01      -           -        1.000E+00      -           -        1.000E+00   1.000E+00   6.000E-01   1.000E+00   1.000E+00         -           -           -           -           -           -  
    68           2     25.2696     43.7683    -32.5000      C        3.500E+00      -           -        8.160E-02   0.000E+00   0.000E+00           F           F   0.000E+00   8.000E-01      -           -        1.000E+00      -           -        1.000E+00   1.000E+00   6.000E-01   1.000E+00   1.000E+00         -           -           -           -           -           -  
    69           2     26.2457     45.4589    -32.5000      C        3.500E+00      -           -        8.160E-02   0.000E+00   0.000E+00           F           F   0.000E+00   8.000E-01      -           -        1.000E+00      -           -        1.000E+00   1.000E+00   6.000E-01   1.000E+00   1.000E+00         -           -           -           -           -           -  
    70           2     27.2218     47.1495    -32.5000      C        3.500E+00      -           -        8.160E-02   0.000E+00   0.000E+00           F           F   0.000E+00   8.000E-01      -           -        1.000E+00      -           -        1.000E+00   1.000E+00   6.000E-01   1.000E+00   1.000E+00         -           -           -           -           -           -  
    71           2     28.1979     48.8401    -32.5000      C        3.500E+00      -           -        8.160E-02   0.000E+00   0.000E+00           F           F   0.000E+00   8.000E-01      -           -        1.000E+00      -           -        1.000E+00   1.000E+00   6.000E-01   1.000E+00   1.000E+00         -           -           -           -           -           -  
    72           2     29.1739     50.5307    -32.5000      C        3.500E+00      -           -        8.160E-02   0.000E+00   0.000E+00           F           F   0.000E+00   8.000E-01      -           -        1.000E+00      -           -        1.000E+00   1.000E+00   6.000E-01   1.000E+00   1.000E+00         -           -           -           -           -           -  
    73           3     -7.5921      0.0000    -32.5000      C        3.500E+00      -           -        8.160E-02   0.000E+00   0.000E+00           F           F   0.000E+00   8.000E-01      -           -        1.000E+00      -           -        1.000E+00   1.000E+00   6.000E-01   1.000E+00   1.000E+00         -           -           -           -           -           -  
    74           3     -9.5443      0.0000    -32.5000      C        3.500E+00      -           -        8.160E-02   0.000E+00   0.000E+00           F           F   0.000E+00   8.000E-01      -           -        1.000E+00      -           -        1.000E+00   1.000E+00   6.000E-01   1.000E+00   1.000E+00         -           -           -           -           -           -  
    75           3    -11.4964      0.0000    -32.5000      C        3.500E+00      -           -        8.160E-02   0.000E+00   0.000E+00           F           F   0.000E+00   8.000E-01      -           -        1.000E+00      -           -        1.000E+00   1.000E+00   6.000E-01   1.000E+00   1.000E+00         -           -           -           -           -           -  
    76           3    -13.4486      0.0000    -32.5000      C        3.500E+00      -           -        8.160E-02   0.000E+00   0.000E+00           F           F   0.000E+00   8.000E-01      -           -        1.000E+00      -           -        1.000E+00   1.000E+00   6.000E-01   1.000E+00   1.000E+00         -           -           -           -           -           -  
    77           3    -15.4007      0.0000    -32.5000      C        3.500E+00      -           -        8.160E-02   0.000E+00   0.000E+00           F           F   0.000E+00   8.000E-01      -           -        1.000E+00      -           -        1.000E+00   1.000E+00   6.000E-01   1.000E+00   1.000E+00         -           -           -           -           -           -  
    78           3    -17.3529      0.0000    -32.5000      C        3.500E+00      -           -        8.160E-02   0.000E+00   0.000E+00           F           F   0.000E+00   8.000E-01      -           -        1.000E+00      -           -        1.000E+00   1.000E+00   6.000E-01   1.000E+00   1.000E+00         -           -           -           -           -           -  
    79           3    -19.3050      0.0000    -32.5000      C        3.500E+00      -           -        8.160E-02   0.000E+00   0.000E+00           F           F   0.000E+00   8.000E-01      -           -        1.000E+00      -           -        1.000E+00   1.000E+00   6.000E-01   1.000E+00   1.000E+00         -           -           -           -           -           -  
    80           3    -21.2571      0.0000    -32.5000      C        3.500E+00      -           -        8.160E-02   0.000E+00   0.000E+00           F           F   0.000E+00   8.000E-01      -           -        1.000E+00      -           -        1.000E+00   1.000E+00   6.000E-01   1.000E+00   1.000E+00         -           -           -           -           -           -  
    81           3    -23.2093      0.0000    -32.5000      C        3.500E+00      -           -        8.160E-02   0.000E+00   0.000E+00           F           F   0.000E+00   8.000E-01      -           -        1.000E+00      -           -        1.000E+00   1.000E+00   6.000E-01   1.000E+00   1.000E+00         -           -           -           -           -           -  
    82           3    -25.1614      0.0000    -32.5000      C        3.500E+00      -           -        8.160E-02   0.000E+00   0.000E+00           F           F   0.000E+00   8.000E-01      -           -        1.000E+00      -           -        1.000E+00   1.000E+00   6.000E-01   1.000E+00   1.000E+00         -           -           -           -           -           -  
    83           3    -27.1136      0.0000    -32.5000      C        3.500E+00      -           -        8.160E-02   0.000E+00   0.000E+00           F           F   0.000E+00   8.000E-01      -           -        1.000E+00      -           -        1.000E+00   1.000E+00   6.000E-01   1.000E+00   1.000E+00         -           -           -           -           -           -  
    84           3    -29.0657      0.0000    -32.5000      C        3.500E+00      -           -        8.160E-02   0.000E+00   0.000E+00           F           F   0.000E+00   8.000E-01      -           -        1.000E+00      -           -        1.000E+00   1.000E+00   6.000E-01   1.000E+00   1.000E+00         -           -           -           -           -           -  
    85           3    -31.0179      0.0000    -32.5000      C        3.500E+00      -           -        8.160E-02   0.000E+00   0.000E+00           F           F   0.000E+00   8.000E-01      -           -        1.000E+00      -           -        1.000E+00   1.000E+00   6.000E-01   1.000E+00   1.000E+00         -           -           -           -           -           -  
    86           3    -32.9700      0.0000    -32.5000      C        3.500E+00      -           -        8.160E-02   0.000E+00   0.000E+00           F           F   0.000E+00   8.000E-01      -           -        1.000E+00      -           -        1.000E+00   1.000E+00   6.000E-01   1.000E+00   1.000E+00         -           -           -           -           -           -  
    87           3    -34.9221      0.0000    -32.5000      C        3.500E+00      -           -        8.160E-02   0.000E+00   0.000E+00           F           F   0.000E+00   8.000E-01      -           -        1.000E+00      -           -        1.000E+00   1.000E+00   6.000E-01   1.000E+00   1.000E+00         -           -           -           -           -           -  
    88           3    -36.8743      0.0000    -32.5000      C        3.500E+00      -           -        8.160E-02   0.000E+00   0.000E+00           F           F   0.000E+00   8.000E-01      -           -        1.000E+00      -           -        1.000E+00   1.000E+00   6.000E-01   1.000E+00   1.000E+00         -           -           -           -           -           -  
    89           3    -38.8264      0.0000    -32.5000      C        3.500E+00      -           -        8.160E-02   0.000E+00   0.000E+00           F           F   0.000E+00   8.000E-01      -           -        1.000E+00      -           -        1.000E+00   1.000E+00   6.000E-01   1.000E+00   1.000E+00         -           -           -           -           -           -  
    90           3    -40.7786      0.0000    -32.5000      C        3.500E+00      -           -        8.160E-02   0.000E+00   0.000E+00           F           F   0.000E+00   8.000E-01      -           -        1.000E+00      -           -        1.000E+00   1.000E+00   6.000E-01   1.000E+00   1.000E+00         -           -           -           -           -           -  
    91           3    -42.7307      0.0000    -32.5000      C        3.500E+00      -           -        8.160E-02   0.000E+00   0.000E+00           F           F   0.000E+00   8.000E-01      -           -        1.000E+00      -           -        1.000E+00   1.000E+00   6.000E-01   1.000E+00   1.000E+00         -           -           -           -           -           -  
    92           3    -44.6829      0.0000    -32.5000      C        3.500E+00      -           -        8.160E-02   0.000E+00   0.000E+00           F           F   0.000E+00   8.000E-01      -           -        1.000E+00      -           -        1.000E+00   1.000E+00   6.000E-01   1.000E+00   1.000E+00         -           -           -           -           -           -  
    93           3    -46.6350      0.0000    -32.5000      C        3.500E+00      -           -        8.160E-02   0.000E+00   0.000E+00           F           F   0.000E+00   8.000E-01      -           -        1.000E+00      -           -        1.000E+00   1.000E+00   6.000E-01   1.000E+00   1.000E+00         -           -           -           -           -           -  
    94           3    -48.5871      0.0000    -32.5000      C        3.500E+00      -           -        8.160E-02   0.000E+00   0.000E+00           F           F   0.000E+00   8.000E-01      -           -        1.000E+00      -           -        1.000E+00   1.000E+00   6.000E-01   1.000E+00   1.000E+00         -           -           -           -           -           -  
    95           3    -50.5393      0.0000    -32.5000      C        3.500E+00      -           -        8.160E-02   0.000E+00   0.000E+00           F           F   0.000E+00   8.000E-01      -           -        1.000E+00      -           -        1.000E+00   1.000E+00   6.000E-01   1.000E+00   1.000E+00         -           -           -           -           -           -  
    96           3    -52.4914      0.0000    -32.5000      C        3.500E+00      -           -        8.160E-02   0.000E+00   0.000E+00           F           F   0.000E+00   8.000E-01      -           -        1.000E+00      -           -        1.000E+00   1.000E+00   6.000E-01   1.000E+00   1.000E+00         -           -           -           -           -           -  
    97           3    -54.4436      0.0000    -32.5000      C        3.500E+00      -           -        8.160E-02   0.000E+00   0.000E+00           F           F   0.000E+00   8.000E-01      -           -        1.000E+00      -           -        1.000E+00   1.000E+00   6.000E-01   1.000E+00   1.000E+00         -           -           -           -           -           -  
    98           3    -56.3957      0.0000    -32.5000      C        3.500E+00      -           -        8.160E-02   0.000E+00   0.000E+00           F           F   0.000E+00   8.000E-01      -           -        1.000E+00      -           -        1.000E+00   1.000E+00   6.000E-01   1.000E+00   1.000E+00         -           -           -           -           -           -  
    99           3    -58.3479      0.0000    -32.5000      C        3.500E+00      -           -        8.160E-02   0.000E+00   0.000E+00           F           F   0.000E+00   8.000E-01      -           -        1.000E+00      -           -        1.000E+00   1.000E+00   6.000E-01   1.000E+00   1.000E+00         -           -           -           -           -           -  
   100           4      3.7961     -6.5750    -32.5000      C        3.500E+00      -           -        8.160E-02   0.000E+00   0.000E+00           F           F   0.000E+00   8.000E-01      -           -        1.000E+00      -           -        1.000E+00   1.000E+00   6.000E-01   1.000E+00   1.000E+00         -           -           -           -           -           -  
   101           4      4.7721     -8.2656    -32.5000      C        3.500E+00      -           -        8.160E-02   0.000E+00   0.000E+00           F           F   0.000E+00   8.000E-01      -           -        1.000E+00      -           -        1.000E+00   1.000E+00   6.000E-01   1.000E+00   1.000E+00         -           -           -           -           -           -  
   102           4      5.7482     -9.9562    -32.5000      C        3.500E+00      -           -        8.160E-02   0.000E+00   0.000E+00           F           F   0.000E+00   8.000E-01      -           -        1.000E+00      -           -        1.000E+00   1.000E+00   6.000E-01   1.000E+00   1.000E+00         -           -           -           -           -           -  
   103           4      6.7243    -11.6468    -32.5000      C        3.500E+00      -           -        8.160E-02   0.000E+00   0.000E+00           F           F   0.000E+00   8.000E-01      -           -        1.000E+00      -           -        1.000E+00   1.000E+00   6.000E-01   1.000E+00   1.000E+00         -           -           -           -           -           -  
   104           4      7.7004    -13.3374    -32.5000      C        3.500E+00      -           -        8.160E-02   0.000E+00   0.000E+00           F           F   0.000E+00   8.000E-01      -           -        1.000E+00      -           -        1.000E+00   1.000E+00   6.000E-01   1.000E+00   1.000E+00         -           -           -           -           -           -  
   105           4      8.6764    -15.0280    -32.5000      C        3.500E+00      -           -        8.160E-02   0.000E+00   0.000E+00           F           F   0.000E+00   8.000E-01      -           -        1.000E+00      -           -        1.000E+00   1.000E+00   6.000E-01   1.000E+00   1.000E+00         -           -           -           -           -           -  
   106           4      9.6525    -16.7186    -32.5000      C        3.500E+00      -           -        8.160E-02   0.000E+00   0.000E+00           F           F   0.000E+00   8.000E-01      -           -        1.000E+00      -           -        1.000E+00   1.000E+00   6.000E-01   1.000E+00   1.000E+00         -           -           -           -           -           -  
   107           4     10.6286    -18.4092    -32.5000      C        3.500E+00      -           -        8.160E-02   0.000E+00   0.000E+00           F           F   0.000E+00   8.000E-01      -           -        1.000E+00      -           -        1.000E+00   1.000E+00   6.000E-01   1.000E+00   1.000E+00         -           -           -           -           -           -  
   108           4     11.6046    -20.0998    -32.5000      C        3.500E+00      -           -        8.160E-02   0.000E+00   0.000E+00           F           F   0.000E+00   8.000E-01      -           -        1.000E+00      -           -        1.000E+00   1.000E+00   6.000E-01   1.000E+00   1.000E+00         -           -           -           -           -           -  
   109           4     12.5807    -21.7904    -32.5000      C        3.500E+00      -           -        8.160E-02   0.000E+00   0.000E+00           F           F   0.000E+00   8.000E-01      -           -        1.000E+00      -           -        1.000E+00   1.000E+00   6.000E-01   1.000E+00   1.000E+00         -           -           -           -           -           -  
   110           4     13.5568    -23.4810    -32.5000      C        3.500E+00      -           -        8.160E-02   0.000E+00   0.000E+00           F           F   0.000E+00   8.000E-01      -           -        1.000E+00      -           -        1.000E+00   1.000E+00   6.000E-01   1.000E+00   1.000E+00         -           -           -           -           -           -  
   111           4     14.5329    -25.1716    -32.5000      C        3.500E+00      -           -        8.160E-02   0.000E+00   0.000E+00           F           F   0.000E+00   8.000E-01      -           -        1.000E+00      -           -        1.000E+00   1.000E+00   6.000E-01   1.000E+00   1.000E+00         -           -           -           -           -           -  
   112           4     15.5089    -26.8623    -32.5000      C        3.500E+00      -           -        8.160E-02   0.000E+00   0.000E+00           F           F   0.000E+00   8.000E-01      -           -        1.000E+00      -           -        1.000E+00   1.000E+00   6.000E-01   1.000E+00   1.000E+00         -           -           -           -           -           -  
   113           4     16.4850    -28.5529    -32.5000      C        3.500E+00      -           -        8.160E-02   0.000E+00   0.000E+00           F           F   0.000E+00   8.000E-01      -           -        1.000E+00      -           -        1.000E+00   1.000E+00   6.000E-01   1.000E+00   1.000E+00         -           -           -           -           -           -  
   114           4     17.4611    -30.2435    -32.5000      C        3.500E+00      -           -        8.160E-02   0.000E+00   0.000E+00           F           F   0.000E+00   8.000E-01      -           -        1.000E+00      -           -        1.000E+00   1.000E+00   6.000E-01   1.000E+00   1.000E+00         -           -           -           -           -           -  
   115           4     18.4371    -31.9341    -32.5000      C        3.500E+00      -           -        8.160E-02   0.000E+00   0.000E+00           F           F   0.000E+00   8.000E-01      -           -        1.000E+00      -           -        1.000E+00   1.000E+00   6.000E-01   1.000E+00   1.000E+00         -           -           -           -           -           -  
   116           4     19.4132    -33.6247    -32.5000      C        3.500E+00      -           -        8.160E-02   0.000E+00   0.000E+00           F           F   0.000E+00   8.000E-01      -           -        1.000E+00      -           -        1.000E+00   1.000E+00   6.000E-01   1.000E+00   1.000E+00         -           -           -           -           -           -  
   117           4     20.3893    -35.3153    -32.5000      C        3.500E+00      -           -        8.160E-02   0.000E+00   0.000E+00           F           F   0.000E+00   8.000E-01      -           -        1.000E+00      -           -        1.000E+00   1.000E+00   6.000E-01   1.000E+00   1.000E+00         -           -           -           -           -           -  
   118           4     21.3654    -37.0059    -32.5000      C        3.500E+00      -           -        8.160E-02   0.000E+00   0.000E+00           F           F   0.000E+00   8.000E-01      -           -        1.000E+00      -           -        1.000E+00   1.000E+00   6.000E-01   1.000E+00   1.000E+00         -           -           -           -           -           -  
   119           4     22.3414    -38.6965    -32.5000      C        3.500E+00      -           -        8.160E-02   0.000E+00   0.000E+00           F           F   0.000E+00   8.000E-01      -           -        1.000E+00      -           -        1.000E+00   1.000E+00   6.000E-01   1.000E+00   1.000E+00         -           -           -           -           -           -  
   120           4     23.3175    -40.3871    -32.5000      C        3.500E+00      -           -        8.160E-02   0.000E+00   0.000E+00           F           F   0.000E+00   8.000E-01      -           -        1.000E+00      -           -        1.000E+00   1.000E+00   6.000E-01   1.000E+00   1.000E+00         -           -           -           -           -           -  
   121           4     24.2936    -42.0777    -32.5000      C        3.500E+00      -           -        8.160E-02   0.000E+00   0.000E+00           F           F   0.000E+00   8.000E-01      -           -        1.000E+00      -           -        1.000E+00   1.000E+00   6.000E-01   1.000E+00   1.000E+00         -           -           -           -           -           -  
   122           4     25.2696    -43.7683    -32.5000      C        3.500E+00      -           -        8.160E-02   0.000E+00   0.000E+00           F           F   0.000E+00   8.000E-01      -           -        1.000E+00      -           -        1.000E+00   1.000E+00   6.000E-01   1.000E+00   1.000E+00         -           -           -           -           -           -  
   123           4     26.2457    -45.4589    -32.5000      C        3.500E+00      -           -        8.160E-02   0.000E+00   0.000E+00           F           F   0.000E+00   8.000E-01      -           -        1.000E+00      -           -        1.000E+00   1.000E+00   6.000E-01   1.000E+00   1.000E+00         -           -           -           -           -           -  
   124           4     27.2218    -47.1495    -32.5000      C        3.500E+00      -           -        8.160E-02   0.000E+00   0.000E+00           F           F   0.000E+00   8.000E-01      -           -        1.000E+00      -           -        1.000E+00   1.000E+00   6.000E-01   1.000E+00   1.000E+00         -           -           -           -           -           -  
   125           4     28.1979    -48.8401    -32.5000      C        3.500E+00      -           -        8.160E-02   0.000E+00   0.000E+00           F           F   0.000E+00   8.000E-01      -           -        1.000E+00      -           -        1.000E+00   1.000E+00   6.000E-01   1.000E+00   1.000E+00         -           -           -           -           -           -  
   126           4     29.1739    -50.5307    -32.5000      C        3.500E+00      -           -        8.160E-02   0.000E+00   0.000E+00           F           F   0.000E+00   8.000E-01      -           -        1.000E+00      -           -        1.000E+00   1.000E+00   6.000E-01   1.000E+00   1.000E+00         -           -           -           -           -           -  
   127           5     19.1500     33.1688    -28.1500      C        2.000E+00      -           -        5.000E-02   0.000E+00   0.000E+00           F           F   0.000E+00   8.000E-01      -           -        1.000E+00      -           -        1.000E+00   1.000E+00   6.000E-01   1.000E+00   1.000E+00         -           -           -           -           -           -  
   128           5     18.3000     31.6965    -27.3000      C        2.000E+00      -           -        5.000E-02   0.000E+00   0.000E+00           F           F   0.000E+00   8.000E-01      -           -        1.000E+00      -           -        1.000E+00   1.000E+00   6.000E-01   1.000E+00   1.000E+00         -           -           -           -           -           -  
   129           5     17.4500     30.2243    -26.4500      C        2.000E+00      -           -        5.000E-02   0.000E+00   0.000E+00           F           F   0.000E+00   8.000E-01      -           -        1.000E+00      -           -        1.000E+00   1.000E+00   6.000E-01   1.000E+00   1.000E+00         -           -           -           -           -           -  
   130           5     16.6000     28.7520    -25.6000      C        2.000E+00      -           -        5.000E-02   0.000E+00   0.000E+00           F           F   0.000E+00   8.000E-01      -           -        1.000E+00      -           -        1.000E+00   1.000E+00   6.000E-01   1.000E+00   1.000E+00         -           -           -           -           -           -  
   131           5     15.7500     27.2798    -24.7500      C        2.000E+00      -           -        5.000E-02   0.000E+00   0.000E+00           F           F   0.000E+00   8.000E-01      -           -        1.000E+00      -           -        1.000E+00   1.000E+00   6.000E-01   1.000E+00   1.000E+00         -           -           -           -           -           -  
   132           5     14.9000     25.8076    -23.9000      C        2.000E+00      -           -        5.000E-02   0.000E+00   0.000E+00           F           F   0.000E+00   8.000E-01      -           -        1.000E+00      -           -        1.000E+00   1.000E+00   6.000E-01   1.000E+00   1.000E+00         -           -           -           -           -           -  
   133           5     14.0500     24.3353    -23.0500      C        2.000E+00      -           -        5.000E-02   0.000E+00   0.000E+00           F           F   0.000E+00   8.000E-01      -           -        1.000E+00      -           -        1.000E+00   1.000E+00   6.000E-01   1.000E+00   1.000E+00         -           -           -           -           -           -  
   134           5     13.2000     22.8631    -22.2000      C        2.000E+00      -           -        5.000E-02   0.000E+00   0.000E+00           F           F   0.000E+00   8.000E-01      -           -        1.000E+00      -           -        1.000E+00   1.000E+00   6.000E-01   1.000E+00   1.000E+00         -           -           -           -           -           -  
   135           5     12.3500     21.3908    -21.3500      C        2.000E+00      -           -        5.000E-02   0.000E+00   0.000E+00           F           F   0.000E+00   8.000E-01      -           -        1.000E+00      -           -        1.000E+00   1.000E+00   6.000E-01   1.000E+00   1.000E+00         -           -           -           -           -           -  
   136           5     11.5000     19.9186    -20.5000      C        2.000E+00      -           -        5.000E-02   0.000E+00   0.000E+00           F           F   0.000E+00   8.000E-01      -           -        1.000E+00      -           -        1.000E+00   1.000E+00   6.000E-01   1.000E+00   1.000E+00         -           -           -           -           -           -  
   137           5     10.6500     18.4463    -19.6500      C        2.000E+00      -           -        5.000E-02   0.000E+00   0.000E+00           F           F   0.000E+00   8.000E-01      -           -        1.000E+00      -           -        1.000E+00   1.000E+00   6.000E-01   1.000E+00   1.000E+00         -           -           -           -           -           -  
   138           5      9.8000     16.9741    -18.8000      C        2.000E+00      -           -        5.000E-02   0.000E+00   0.000E+00           F           F   0.000E+00   8.000E-01      -           -        1.000E+00      -           -        1.000E+00   1.000E+00   6.000E-01   1.000E+00   1.000E+00         -           -           -           -           -           -  
   139           5      8.9500     15.5019    -17.9500      C        2.000E+00      -           -        5.000E-02   0.000E+00   0.000E+00           F           F   0.000E+00   8.000E-01      -           -        1.000E+00      -           -        1.000E+00   1.000E+00   6.000E-01   1.000E+00   1.000E+00         -           -           -           -           -           -  
   140           5      8.1000     14.0296    -17.1000      C        2.000E+00      -           -        5.000E-02   0.000E+00   0.000E+00           F           F   0.000E+00   8.000E-01      -           -        1.000E+00      -           -        1.000E+00   1.000E+00   6.000E-01   1.000E+00   1.000E+00         -           -           -           -           -           -  
   141           5      7.2500     12.5574    -16.2500      C        2.000E+00      -           -        5.000E-02   0.000E+00   0.000E+00           F           F   0.000E+00   8.000E-01      -           -        1.000E+00      -           -        1.000E+00   1.000E+00   6.000E-01   1.000E+00   1.000E+00         -           -           -           -           -           -  
   142           5      6.4000     11.0851    -15.4000      C        2.000E+00      -           -        5.000E-02   0.000E+00   0.000E+00           F           F   0.000E+00   8.000E-01      -           -        1.000E+00      -           -        1.000E+00   1.000E+00   6.000E-01   1.000E+00   1.000E+00         -           -           -           -           -           -  
   143           5      5.5500      9.6129    -14.5500      C        2.000E+00      -           -        5.000E-02   0.000E+00   0.000E+00           F           F   0.000E+00   8.000E-01      -           -        1.000E+00      -           -        1.000E+00   1.000E+00   6.000E-01   1.000E+00   1.000E+00         -           -           -           -           -           -  
   144           5      4.7000      8.1406    -13.7000      C        2.000E+00      -           -        5.000E-02   0.000E+00   0.000E+00           F           F   0.000E+00   8.000E-01      -           -        1.000E+00      -           -        1.000E+00   1.000E+00   6.000E-01   1.000E+00   1.000E+00         -           -           -           -           -           -  
   145           5      3.8500      6.6684    -12.8500      C        2.000E+00      -           -        5.000E-02   0.000E+00   0.000E+00           F           F   0.000E+00   8.000E-01      -           -        1.000E+00      -           -        1.000E+00   1.000E+00   6.000E-01   1.000E+00   1.000E+00         -           -           -           -           -           -  
   146           6    -38.3000      0.0000    -28.1500      C        2.000E+00      -           -        5.000E-02   0.000E+00   0.000E+00           F           F   0.000E+00   8.000E-01      -           -        1.000E+00      -           -        1.000E+00   1.000E+00   6.000E-01   1.000E+00   1.000E+00         -           -           -           -           -           -  
   147           6    -36.6000      0.0000    -27.3000      C        2.000E+00      -           -        5.000E-02   0.000E+00   0.000E+00           F           F   0.000E+00   8.000E-01      -           -        1.000E+00      -           -        1.000E+00   1.000E+00   6.000E-01   1.000E+00   1.000E+00         -           -           -           -           -           -  
   148           6    -34.9000      0.0000    -26.4500      C        2.000E+00      -           -        5.000E-02   0.000E+00   0.000E+00           F           F   0.000E+00   8.000E-01      -           -        1.000E+00      -           -        1.000E+00   1.000E+00   6.000E-01   1.000E+00   1.000E+00         -           -           -           -           -           -  
   149           6    -33.2000      0.0000    -25.6000      C        2.000E+00      -           -        5.000E-02   0.000E+00   0.000E+00           F           F   0.000E+00   8.000E-01      -           -        1.000E+00      -           -        1.000E+00   1.000E+00   6.000E-01   1.000E+00   1.000E+00         -           -           -           -           -           -  
   150           6    -31.5000      0.0000    -24.7500      C        2.000E+00      -           -        5.000E-02   0.000E+00   0.000E+00           F           F   0.000E+00   8.000E-01      -           -        1.000E+00      -           -        1.000E+00   1.000E+00   6.000E-01   1.000E+00   1.000E+00         -           -           -           -           -           -  
   151           6    -29.8000      0.0000    -23.9000      C        2.000E+00      -           -        5.000E-02   0.000E+00   0.000E+00           F           F   0.000E+00   8.000E-01      -           -        1.000E+00      -           -        1.000E+00   1.000E+00   6.000E-01   1.000E+00   1.000E+00         -           -           -           -           -           -  
   152           6    -28.1000      0.0000    -23.0500      C        2.000E+00      -           -        5.000E-02   0.000E+00   0.000E+00           F           F   0.000E+00   8.000E-01      -           -        1.000E+00      -           -        1.000E+00   1.000E+00   6.000E-01   1.000E+00   1.000E+00         -           -           -           -           -           -  
   153           6    -26.4000      0.0000    -22.2000      C        2.000E+00      -           -        5.000E-02   0.000E+00   0.000E+00           F           F   0.000E+00   8.000E-01      -           -        1.000E+00      -           -        1.000E+00   1.000E+00   6.000E-01   1.000E+00   1.000E+00         -           -           -           -           -           -  
   154           6    -24.7000      0.0000    -21.3500      C        2.000E+00      -           -        5.000E-02   0.000E+00   0.000E+00           F           F   0.000E+00   8.000E-01      -           -        1.000E+00      -           -        1.000E+00   1.000E+00   6.000E-01   1.000E+00   1.000E+00         -           -           -           -           -           -  
   155           6    -23.0000      0.0000    -20.5000      C        2.000E+00      -           -        5.000E-02   0.000E+00   0.000E+00           F           F   0.000E+00   8.000E-01      -           -        1.000E+00      -           -        1.000E+00   1.000E+00   6.000E-01   1.000E+00   1.000E+00         -           -           -           -           -           -  
   156           6    -21.3000      0.0000    -19.6500      C        2.000E+00      -           -        5.000E-02   0.000E+00   0.000E+00           F           F   0.000E+00   8.000E-01      -           -        1.000E+00      -           -        1.000E+00   1.000E+00   6.000E-01   1.000E+00   1.000E+00         -           -           -           -           -           -  
   157           6    -19.6000      0.0000    -18.8000      C        2.000E+00      -           -        5.000E-02   0.000E+00   0.000E+00           F           F   0.000E+00   8.000E-01      -           -        1.000E+00      -           -        1.000E+00   1.000E+00   6.000E-01   1.000E+00   1.000E+00         -           -           -           -           -           -  
   158           6    -17.9000      0.0000    -17.9500      C        2.000E+00      -           -        5.000E-02   0.000E+00   0.000E+00           F           F   0.000E+00   8.000E-01      -           -        1.000E+00      -           -        1.000E+00   1.000E+00   6.000E-01   1.000E+00   1.000E+00         -           -           -           -           -           -  
   159           6    -16.2000      0.0000    -17.1000      C        2.000E+00      -           -        5.000E-02   0.000E+00   0.000E+00           F           F   0.000E+00   8.000E-01      -           -        1.000E+00      -           -        1.000E+00   1.000E+00   6.000E-01   1.000E+00   1.000E+00         -           -           -           -           -           -  
   160           6    -14.5000      0.0000    -16.2500      C        2.000E+00      -           -        5.000E-02   0.000E+00   0.000E+00           F           F   0.000E+00   8.000E-01      -           -        1.000E+00      -           -        1.000E+00   1.000E+00   6.000E-01   1.000E+00   1.000E+00         -           -           -           -           -           -  
   161           6    -12.8000      0.0000    -15.4000      C        2.000E+00      -           -        5.000E-02   0.000E+00   0.000E+00           F           F   0.000E+00   8.000E-01      -           -        1.000E+00      -           -        1.000E+00   1.000E+00   6.000E-01   1.000E+00   1.000E+00         -           -           -           -           -           -  
   162           6    -11.1000      0.0000    -14.5500      C        2.000E+00      -           -        5.000E-02   0.000E+00   0.000E+00           F           F   0.000E+00   8.000E-01      -           -        1.000E+00      -           -        1.000E+00   1.000E+00   6.000E-01   1.000E+00   1.000E+00         -           -           -           -           -           -  
   163           6     -9.4000      0.0000    -13.7000      C        2.000E+00      -           -        5.000E-02   0.000E+00   0.000E+00           F           F   0.000E+00   8.000E-01      -           -        1.000E+00      -           -        1.000E+00   1.000E+00   6.000E-01   1.000E+00   1.000E+00         -           -           -           -           -           -  
   164           6     -7.7000      0.0000    -12.8500      C        2.000E+00      -           -        5.000E-02   0.000E+00   0.000E+00           F           F   0.000E+00   8.000E-01      -           -        1.000E+00      -           -        1.000E+00   1.000E+00   6.000E-01   1.000E+00   1.000E+00         -           -           -           -           -           -  
   165           7     19.1500    -33.1688    -28.1500      C        2.000E+00      -           -        5.000E-02   0.000E+00   0.000E+00           F           F   0.000E+00   8.000E-01      -           -        1.000E+00      -           -        1.000E+00   1.000E+00   6.000E-01   1.000E+00   1.000E+00         -           -           -           -           -           -  
   166           7     18.3000    -31.6965    -27.3000      C        2.000E+00      -           -        5.000E-02   0.000E+00   0.000E+00           F           F   0.000E+00   8.000E-01      -           -        1.000E+00      -           -        1.000E+00   1.000E+00   6.000E-01   1.000E+00   1.000E+00         -           -           -           -           -           -  
   167           7     17.4500    -30.2243    -26.4500      C        2.000E+00      -           -        5.000E-02   0.000E+00   0.000E+00           F           F   0.000E+00   8.000E-01      -           -        1.000E+00      -           -        1.000E+00   1.000E+00   6.000E-01   1.000E+00   1.000E+00         -           -           -           -           -           -  
   168           7     16.6000    -28.7520    -25.6000      C        2.000E+00      -           -        5.000E-02   0.000E+00   0.000E+00           F           F   0.000E+00   8.000E-01      -           -        1.000E+00      -           -        1.000E+00   1.000E+00   6.000E-01   1.000E+00   1.000E+00         -           -           -           -           -           -  
   169           7     15.7500    -27.2798    -24.7500      C        2.000E+00      -           -        5.000E-02   0.000E+00   0.000E+00           F           F   0.000E+00   8.000E-01      -           -        1.000E+00      -           -        1.000E+00   1.000E+00   6.000E-01   1.000E+00   1.000E+00         -           -           -           -           -           -  
   170           7     14.9000    -25.8076    -23.9000      C        2.000E+00      -           -        5.000E-02   0.000E+00   0.000E+00           F           F   0.000E+00   8.000E-01      -           -        1.000E+00      -           -        1.000E+00   1.000E+00   6.000E-01   1.000E+00   1.000E+00         -           -           -           -           -           -  
   171           7     14.0500    -24.3353    -23.0500      C        2.000E+00      -           -        5.000E-02   0.000E+00   0.000E+00           F           F   0.000E+00   8.000E-01      -           -        1.000E+00      -           -        1.000E+00   1.000E+00   6.000E-01   1.000E+00   1.000E+00         -           -           -           -           -           -  
   172           7     13.2000    -22.8631    -22.2000      C        2.000E+00      -           -        5.000E-02   0.000E+00   0.000E+00           F           F   0.000E+00   8.000E-01      -           -        1.000E+00      -           -        1.000E+00   1.000E+00   6.000E-01   1.000E+00   1.000E+00         -           -           -           -           -           -  
   173           7     12.3500    -21.3908    -21.3500      C        2.000E+00      -           -        5.000E-02   0.000E+00   0.000E+00           F           F   0.000E+00   8.000E-01      -           -        1.000E+00      -           -        1.000E+00   1.000E+00   6.000E-01   1.000E+00   1.000E+00         -           -           -           -           -           -  
   174           7     11.5000    -19.9186    -20.5000      C        2.000E+00      -           -        5.000E-02   0.000E+00   0.000E+00           F           F   0.000E+00   8.000E-01      -           -        1.000E+00      -           -        1.000E+00   1.000E+00   6.000E-01   1.000E+00   1.000E+00         -           -           -           -           -           -  
   175           7     10.6500    -18.4463    -19.6500      C        2.000E+00      -           -        5.000E-02   0.000E+00   0.000E+00           F           F   0.000E+00   8.000E-01      -           -        1.000E+00      -           -        1.000E+00   1.000E+00   6.000E-01   1.000E+00   1.000E+00         -           -           -           -           -           -  
   176           7      9.8000    -16.9741    -18.8000      C        2.000E+00      -           -        5.000E-02   0.000E+00   0.000E+00           F           F   0.000E+00   8.000E-01      -           -        1.000E+00      -           -        1.000E+00   1.000E+00   6.000E-01   1.000E+00   1.000E+00         -           -           -           -           -           -  
   177           7      8.9500    -15.5019    -17.9500      C        2.000E+00      -           -        5.000E-02   0.000E+00   0.000E+00           F           F   0.000E+00   8.000E-01      -           -        1.000E+00      -           -        1.000E+00   1.000E+00   6.000E-01   1.000E+00   1.000E+00         -           -           -           -           -           -  
   178           7      8.1000    -14.0296    -17.1000      C        2.000E+00      -           -        5.000E-02   0.000E+00   0.000E+00           F           F   0.000E+00   8.000E-01      -           -        1.000E+00      -           -        1.000E+00   1.000E+00   6.000E-01   1.000E+00   1.000E+00         -           -           -           -           -           -  
   179           7      7.2500    -12.5574    -16.2500      C        2.000E+00      -           -        5.000E-02   0.000E+00   0.000E+00           F           F   0.000E+00   8.000E-01      -           -        1.000E+00      -           -        1.000E+00   1.000E+00   6.000E-01   1.000E+00   1.000E+00         -           -           -           -           -           -  
   180           7      6.4000    -11.0851    -15.4000      C        2.000E+00      -           -        5.000E-02   0.000E+00   0.000E+00           F           F   0.000E+00   8.000E-01      -           -        1.000E+00      -           -        1.000E+00   1.000E+00   6.000E-01   1.000E+00   1.000E+00         -           -           -           -           -           -  
   181           7      5.5500     -9.6129    -14.5500      C        2.000E+00      -           -        5.000E-02   0.000E+00   0.000E+00           F           F   0.000E+00   8.000E-01      -           -        1.000E+00      -           -        1.000E+00   1.000E+00   6.000E-01   1.000E+00   1.000E+00         -           -           -           -           -           -  
   182           7      4.7000     -8.1406    -13.7000      C        2.000E+00      -           -        5.000E-02   0.000E+00   0.000E+00           F           F   0.000E+00   8.000E-01      -           -        1.000E+00      -           -        1.000E+00   1.000E+00   6.000E-01   1.000E+00   1.000E+00         -           -           -           -           -           -  
   183           7      3.8500     -6.6684    -12.8500      C        2.000E+00      -           -        5.000E-02   0.000E+00   0.000E+00           F           F   0.000E+00   8.000E-01      -           -        1.000E+00      -           -        1.000E+00   1.000E+00   6.000E-01   1.000E+00   1.000E+00         -           -           -           -           -           -  
   184           8     31.7500     54.9926    -34.0000      C        4.000E+00      -           -        5.000E-02   0.000E+00   0.000E+00           F           F   0.000E+00   8.000E-01      -           -        1.000E+00      -           -        1.000E+00   1.000E+00   6.000E-01   1.000E+00   1.000E+00         -           -           -           -           -           -  
   185           8     31.7500     54.9926    -32.0000      C        4.000E+00      -           -        5.000E-02   0.000E+00   0.000E+00           F           F   0.000E+00   8.000E-01      -           -        1.000E+00      -           -        1.000E+00   1.000E+00   6.000E-01   1.000E+00   1.000E+00         -           -           -           -           -           -  
   186           8     31.7500     54.9926    -30.0000      C        4.000E+00      -           -        5.000E-02   0.000E+00   0.000E+00           F           F   0.000E+00   8.000E-01      -           -        1.000E+00      -           -        1.000E+00   1.000E+00   6.000E-01   1.000E+00   1.000E+00         -           -           -           -           -           -  
   187           8     31.7500     54.9926    -28.0000      C        4.000E+00      -           -        5.000E-02   0.000E+00   0.000E+00           F           F   0.000E+00   8.000E-01      -           -        1.000E+00      -           -        1.000E+00   1.000E+00   6.000E-01   1.000E+00   1.000E+00         -           -           -           -           -           -  
   188           8     31.7500     54.9926    -26.0000      C        4.000E+00      -           -        5.000E-02   0.000E+00   0.000E+00           F           F   0.000E+00   8.000E-01      -           -        1.000E+00      -           -        1.000E+00   1.000E+00   6.000E-01   1.000E+00   1.000E+00         -           -           -           -           -           -  
   189           8     31.7500     54.9926    -24.0000      C        4.000E+00      -           -        5.000E-02   0.000E+00   0.000E+00           F           F   0.000E+00   8.000E-01      -           -        1.000E+00      -           -        1.000E+00   1.000E+00   6.000E-01   1.000E+00   1.000E+00         -           -           -           -           -           -  
   190           8     31.7500     54.9926    -22.0000      C        4.000E+00      -           -        5.000E-02   0.000E+00   0.000E+00           F           F   0.000E+00   8.000E-01      -           -        1.000E+00      -           -        1.000E+00   1.000E+00   6.000E-01   1.000E+00   1.000E+00         -           -           -           -           -           -  
   191           9    -63.5000      0.0000    -34.0000      C        4.000E+00      -           -        5.000E-02   0.000E+00   0.000E+00           F           F   0.000E+00   8.000E-01      -           -        1.000E+00      -           -        1.000E+00   1.000E+00   6.000E-01   1.000E+00   1.000E+00         -           -           -           -           -           -  
   192           9    -63.5000      0.0000    -32.0000      C        4.000E+00      -           -        5.000E-02   0.000E+00   0.000E+00           F           F   0.000E+00   8.000E-01      -           -        1.000E+00      -           -        1.000E+00   1.000E+00   6.000E-01   1.000E+00   1.000E+00         -           -           -           -           -           -  
   193           9    -63.5000      0.0000    -30.0000      C        4.000E+00      -           -        5.000E-02   0.000E+00   0.000E+00           F           F   0.000E+00   8.000E-01      -           -        1.000E+00      -           -        1.000E+00   1.000E+00   6.000E-01   1.000E+00   1.000E+00         -           -           -           -           -           -  
   194           9    -63.5000      0.0000    -28.0000      C        4.000E+00      -           -        5.000E-02   0.000E+00   0.000E+00           F           F   0.000E+00   8.000E-01      -           -        1.000E+00      -           -        1.000E+00   1.000E+00   6.000E-01   1.000E+00   1.000E+00         -           -           -           -           -           -  
   195           9    -63.5000      0.0000    -26.0000      C        4.000E+00      -           -        5.000E-02   0.000E+00   0.000E+00           F           F   0.000E+00   8.000E-01      -           -        1.000E+00      -           -        1.000E+00   1.000E+00   6.000E-01   1.000E+00   1.000E+00         -           -           -           -           -           -  
   196           9    -63.5000      0.0000    -24.0000      C        4.000E+00      -           -        5.000E-02   0.000E+00   0.000E+00           F           F   0.000E+00   8.000E-01      -           -        1.000E+00      -           -        1.000E+00   1.000E+00   6.000E-01   1.000E+00   1.000E+00         -           -           -           -           -           -  
   197           9    -63.5000      0.0000    -22.0000      C        4.000E+00      -           -        5.000E-02   0.000E+00   0.000E+00           F           F   0.000E+00   8.000E-01      -           -        1.000E+00      -           -        1.000E+00   1.000E+00   6.000E-01   1.000E+00   1.000E+00         -           -           -           -           -           -  
   198          10     31.7500    -54.9926    -34.0000      C        4.000E+00      -           -        5.000E-02   0.000E+00   0.000E+00           F           F   0.000E+00   8.000E-01      -           -        1.000E+00      -           -        1.000E+00   1.000E+00   6.000E-01   1.000E+00   1.000E+00         -           -           -           -           -           -  
   199          10     31.7500    -54.9926    -32.0000      C        4.000E+00      -           -        5.000E-02   0.000E+00   0.000E+00           F           F   0.000E+00   8.000E-01      -           -        1.000E+00      -           -        1.000E+00   1.000E+00   6.000E-01   1.000E+00   1.000E+00         -           -           -           -           -           -  
   200          10     31.7500    -54.9926    -30.0000      C        4.000E+00      -           -        5.000E-02   0.000E+00   0.000E+00           F           F   0.000E+00   8.000E-01      -           -        1.000E+00      -           -        1.000E+00   1.000E+00   6.000E-01   1.000E+00   1.000E+00         -           -           -           -           -           -  
   201          10     31.7500    -54.9926    -28.0000      C        4.000E+00      -           -        5.000E-02   0.000E+00   0.000E+00           F           F   0.000E+00   8.000E-01      -           -        1.000E+00      -           -        1.000E+00   1.000E+00   6.000E-01   1.000E+00   1.000E+00         -           -           -           -           -           -  
   202          10     31.7500    -54.9926    -26.0000      C        4.000E+00      -           -        5.000E-02   0.000E+00   0.000E+00           F           F   0.000E+00   8.000E-01      -           -        1.000E+00      -           -        1.000E+00   1.000E+00   6.000E-01   1.000E+00   1.000E+00         -           -           -           -           -           -  
   203          10     31.7500    -54.9926    -24.0000      C        4.000E+00      -           -        5.000E-02   0.000E+00   0.000E+00           F           F   0.000E+00   8.000E-01      -           -        1.000E+00      -           -        1.000E+00   1.000E+00   6.000E-01   1.000E+00   1.000E+00         -           -           -           -           -           -  
   204          10     31.7500    -54.9926    -22.0000      C        4.000E+00      -           -        5.000E-02   0.000E+00   0.000E+00           F           F   0.000E+00   8.000E-01      -           -        1.000E+00      -           -        1.000E+00   1.000E+00   6.000E-01   1.000E+00   1.000E+00         -           -           -           -           -           -  



 Members


 MemberID  joint1  joint2      Length       NElem         Volume       MGVolume          R1           SA1           SB1           t1             R2           SA2           SB2           t2          PropPot      FilledFlag   FillDensity    FillFSLoc     FillMass         Cd1          CdA1          CdB1           Ca1          CaA1           CaB1          Cp1           Cb1          AxCd1         AxCa1         AxCp1        JAxCd1       JAxCa1         JAxCp1          Cd2          CdA2          CdB2           Ca2          CaA2          CaB2           Cp2           Cb2          AxCd2         AxCa2         AxCp2        JAxCd2        JAxCa2        JAxCp2   
   (-)      (-)     (-)         (m)          (-)          (m^3)         (m^3)            (m)          (m)           (m)           (m)            (m)          (m)           (m)           (m)           (-)           (-)        (kg/m^3)         (-)          (kg)           (-)           (-)           (-)           (-)           (-)            (-)          (-)           (-)           (-)           (-)           (-)           (-)           (-)           (-)           (-)           (-)           (-)           (-)           (-)           (-)           (-)           (-)           (-)           (-)           (-)           (-)           (-)           (-)    
        1       1       2   5.10000E+01            26   5.76796E+03   0.00000E+00   6.00000E+00       -             -         5.00002E-02   6.00000E+00       -             -         5.00002E-02             F             F   0.00000E+00   0.00000E+00   0.00000E+00   8.00000E-01       -             -         1.00000E+00       -             -         1.00000E+00   1.00000E+00   6.00000E-01   1.00000E+00   1.00000E+00   6.00000E-01   6.00000E-01   1.00000E+00   8.00000E-01       -             -         1.00000E+00       -             -         1.00000E+00   1.00000E+00   6.00000E-01   1.00000E+00   1.00000E+00   6.00000E-01   6.00000E-01   1.00000E+00
        2       3       4   5.46600E+01            28   2.10356E+03   0.00000E+00   3.50000E+00       -             -         8.16000E-02   3.50000E+00       -             -         8.16000E-02             F             F   0.00000E+00   0.00000E+00   0.00000E+00   8.00000E-01       -             -         1.00000E+00       -             -         1.00000E+00   1.00000E+00   6.00000E-01   1.00000E+00   1.00000E+00   6.00000E-01   6.00000E-01   1.00000E+00   8.00000E-01       -             -         1.00000E+00       -             -         1.00000E+00   1.00000E+00   6.00000E-01   1.00000E+00   1.00000E+00   6.00000E-01   6.00000E-01   1.00000E+00
        3       6       5   5.46600E+01            28   2.10356E+03   0.00000E+00   3.50000E+00       -             -         8.16000E-02   3.50000E+00       -             -         8.16000E-02             F             F   0.00000E+00   0.00000E+00   0.00000E+00   8.00000E-01       -             -         1.00000E+00       -             -         1.00000E+00   1.00000E+00   6.00000E-01   1.00000E+00   1.00000E+00   6.00000E-01   6.00000E-01   1.00000E+00   8.00000E-01       -             -         1.00000E+00       -             -         1.00000E+00   1.00000E+00   6.00000E-01   1.00000E+00   1.00000E+00   6.00000E-01   6.00000E-01   1.00000E+00
        4       7       8   5.46600E+01            28   2.10356E+03   0.00000E+00   3.50000E+00       -             -         8.16000E-02   3.50000E+00       -             -         8.16000E-02             F             F   0.00000E+00   0.00000E+00   0.00000E+00   8.00000E-01       -             -         1.00000E+00       -             -         1.00000E+00   1.00000E+00   6.00000E-01   1.00000E+00   1.00000E+00   6.00000E-01   6.00000E-01   1.00000E+00   8.00000E-01       -             -         1.00000E+00       -             -         1.00000E+00   1.00000E+00   6.00000E-01   1.00000E+00   1.00000E+00   6.00000E-01   6.00000E-01   1.00000E+00
        5       9      10   3.80132E+01            20   4.77687E+02   0.00000E+00   2.00000E+00       -             -         5.00000E-02   2.00000E+00       -             -         5.00000E-02             F             F   0.00000E+00   0.00000E+00   0.00000E+00   8.00000E-01       -             -         1.00000E+00       -             -         1.00000E+00   1.00000E+00   6.00000E-01   1.00000E+00   1.00000E+00   6.00000E-01   6.00000E-01   1.00000E+00   8.00000E-01       -             -         1.00000E+00       -             -         1.00000E+00   1.00000E+00   6.00000E-01   1.00000E+00   1.00000E+00   6.00000E-01   6.00000E-01   1.00000E+00
        6      11      12   3.80132E+01            20   4.77687E+02   0.00000E+00   2.00000E+00       -             -         5.00000E-02   2.00000E+00       -             -         5.00000E-02             F             F   0.00000E+00   0.00000E+00   0.00000E+00   8.00000E-01       -             -         1.00000E+00       -             -         1.00000E+00   1.00000E+00   6.00000E-01   1.00000E+00   1.00000E+00   6.00000E-01   6.00000E-01   1.00000E+00   8.00000E-01       -             -         1.00000E+00       -             -         1.00000E+00   1.00000E+00   6.00000E-01   1.00000E+00   1.00000E+00   6.00000E-01   6.00000E-01   1.00000E+00
        7      13      14   3.80132E+01            20   4.77687E+02   0.00000E+00   2.00000E+00       -             -         5.00000E-02   2.00000E+00       -             -         5.00000E-02             F             F   0.00000E+00   0.00000E+00   0.00000E+00   8.00000E-01       -             -         1.00000E+00       -             -         1.00000E+00   1.00000E+00   6.00000E-01   1.00000E+00   1.00000E+00   6.00000E-01   6.00000E-01   1.00000E+00   8.00000E-01       -             -         1.00000E+00       -             -         1.00000E+00   1.00000E+00   6.00000E-01   1.00000E+00   1.00000E+00   6.00000E-01   6.00000E-01   1.00000E+00
        8      15      16   1.60000E+01             8   8.04248E+02   0.00000E+00   4.00000E+00       -             -         5.00000E-02   4.00000E+00       -             -         5.00000E-02             F             F   0.00000E+00   0.00000E+00   0.00000E+00   8.00000E-01       -             -         1.00000E+00       -             -         1.00000E+00   1.00000E+00   6.00000E-01   1.00000E+00   1.00000E+00   6.00000E-01   6.00000E-01   1.00000E+00   8.00000E-01       -             -         1.00000E+00       -             -         1.00000E+00   1.00000E+00   6.00000E-01   1.00000E+00   1.00000E+00   6.00000E-01   6.00000E-01   1.00000E+00
        9      17      18   1.60000E+01             8   8.04248E+02   0.00000E+00   4.00000E+00       -             -         5.00000E-02   4.00000E+00       -             -         5.00000E-02             F             F   0.00000E+00   0.00000E+00   0.00000E+00   8.00000E-01       -             -         1.00000E+00       -             -         1.00000E+00   1.00000E+00   6.00000E-01   1.00000E+00   1.00000E+00   6.00000E-01   6.00000E-01   1.00000E+00   8.00000E-01       -             -         1.00000E+00       -             -         1.00000E+00   1.00000E+00   6.00000E-01   1.00000E+00   1.00000E+00   6.00000E-01   6.00000E-01   1.00000E+00
       10      19      20   1.60000E+01             8   8.04248E+02   0.00000E+00   4.00000E+00       -             -         5.00000E-02   4.00000E+00       -             -         5.00000E-02             F             F   0.00000E+00   0.00000E+00   0.00000E+00   8.00000E-01       -             -         1.00000E+00       -             -         1.00000E+00   1.00000E+00   6.00000E-01   1.00000E+00   1.00000E+00   6.00000E-01   6.00000E-01   1.00000E+00   8.00000E-01       -             -         1.00000E+00       -             -         1.00000E+00   1.00000E+00   6.00000E-01   1.00000E+00   1.00000E+00   6.00000E-01   6.00000E-01   1.00000E+00



Requested Member Outputs


   Label         Xi          Yi          Zi       MemberID    StartXi     StartYi     StartZi      EndXi       EndYi       EndZi        Loc    
    (-)          (m)         (m)         (m)        (-)         (m)         (m)         (m)         (m)         (m)         (m)         (-)    



 Requested Joint Outputs


   Label         Xi          Yi          Zi      InpJointID
    (-)          (m)         (m)         (m)        (-)    

This summary file was closed on 19-Nov-2025 at 10:35:57.

